 Abaqus/Standard Learning Edition 2024                  DATE 13-Jun-2025 TIME 13:38:33
 SUMMARY OF JOB INFORMATION:
 STEP  INC ATT SEVERE EQUIL TOTAL  TOTAL      STEP       INC OF       DOF    IF
               DISCON ITERS ITERS  TIME/    TIME/LPF    TIME/LPF    MONITOR RIKS
               ITERS               FREQ
   1     1   1     0     1     1  0.00100    0.00100    0.001000  
   1     2   1     0     1     1  0.00200    0.00200    0.001000  
   1     3   1     0     1     1  0.00300    0.00300    0.001000  
   1     4   1     0     1     1  0.00400    0.00400    0.001000  
   1     5   1     0     1     1  0.00500    0.00500    0.001000  
   1     6   1     0     1     1  0.00600    0.00600    0.001000  
   1     7   1     0     1     1  0.00700    0.00700    0.001000  
   1     8   1     0     1     1  0.00800    0.00800    0.001000  
   1     9   1     0     1     1  0.00900    0.00900    0.001000  
   1    10   1     0     1     1  0.0100     0.0100     0.001000  
   1    11   1     0     1     1  0.0110     0.0110     0.001000  
   1    12   1     0     1     1  0.0120     0.0120     0.001000  
   1    13   1     0     1     1  0.0130     0.0130     0.001000  
   1    14   1     0     1     1  0.0140     0.0140     0.001000  
   1    15   1     0     1     1  0.0150     0.0150     0.001000  
   1    16   1     0     1     1  0.0160     0.0160     0.001000  
   1    17   1     0     1     1  0.0170     0.0170     0.001000  
   1    18   1     0     1     1  0.0180     0.0180     0.001000  
   1    19   1     0     1     1  0.0190     0.0190     0.001000  
   1    20   1     0     1     1  0.0200     0.0200     0.001000  
   1    21   1     0     1     1  0.0210     0.0210     0.001000  
   1    22   1     0     1     1  0.0220     0.0220     0.001000  
   1    23   1     0     1     1  0.0230     0.0230     0.001000  
   1    24   1     0     1     1  0.0240     0.0240     0.001000  
   1    25   1     0     1     1  0.0250     0.0250     0.001000  
   1    26   1     0     1     1  0.0260     0.0260     0.001000  
   1    27   1     0     1     1  0.0270     0.0270     0.001000  
   1    28   1     0     1     1  0.0280     0.0280     0.001000  
   1    29   1     0     1     1  0.0290     0.0290     0.001000  
   1    30   1     0     1     1  0.0300     0.0300     0.001000  
   1    31   1     0     1     1  0.0310     0.0310     0.001000  
   1    32   1     0     1     1  0.0320     0.0320     0.001000  
   1    33   1     0     1     1  0.0330     0.0330     0.001000  
   1    34   1     0     1     1  0.0340     0.0340     0.001000  
   1    35   1     0     1     1  0.0350     0.0350     0.001000  
   1    36   1     0     1     1  0.0360     0.0360     0.001000  
   1    37   1     0     1     1  0.0370     0.0370     0.001000  
   1    38   1     0     1     1  0.0380     0.0380     0.001000  
   1    39   1     0     1     1  0.0390     0.0390     0.001000  
   1    40   1     0     1     1  0.0400     0.0400     0.001000  
   1    41   1     0     1     1  0.0410     0.0410     0.001000  
   1    42   1     0     1     1  0.0420     0.0420     0.001000  
   1    43   1     0     1     1  0.0430     0.0430     0.001000  
   1    44   1     0     1     1  0.0440     0.0440     0.001000  
   1    45   1     0     1     1  0.0450     0.0450     0.001000  
   1    46   1     0     1     1  0.0460     0.0460     0.001000  
   1    47   1     0     1     1  0.0470     0.0470     0.001000  
   1    48   1     0     1     1  0.0480     0.0480     0.001000  
   1    49   1     0     1     1  0.0490     0.0490     0.001000  
   1    50   1     0     1     1  0.0500     0.0500     0.001000  
   1    51   1     0     1     1  0.0510     0.0510     0.001000  
   1    52   1     0     1     1  0.0520     0.0520     0.001000  
   1    53   1     0     1     1  0.0530     0.0530     0.001000  
   1    54   1     0     1     1  0.0540     0.0540     0.001000  
   1    55   1     0     1     1  0.0550     0.0550     0.001000  
   1    56   1     0     1     1  0.0560     0.0560     0.001000  
   1    57   1     0     1     1  0.0570     0.0570     0.001000  
   1    58   1     0     1     1  0.0580     0.0580     0.001000  
   1    59   1     0     1     1  0.0590     0.0590     0.001000  
   1    60   1     0     1     1  0.0600     0.0600     0.001000  
   1    61   1     0     1     1  0.0610     0.0610     0.001000  
   1    62   1     0     1     1  0.0620     0.0620     0.001000  
   1    63   1     0     1     1  0.0630     0.0630     0.001000  
   1    64   1     0     1     1  0.0640     0.0640     0.001000  
   1    65   1     0     1     1  0.0650     0.0650     0.001000  
   1    66   1     0     1     1  0.0660     0.0660     0.001000  
   1    67   1     0     1     1  0.0670     0.0670     0.001000  
   1    68   1     0     1     1  0.0680     0.0680     0.001000  
   1    69   1     0     1     1  0.0690     0.0690     0.001000  
   1    70   1     0     1     1  0.0700     0.0700     0.001000  
   1    71   1     0     1     1  0.0710     0.0710     0.001000  
   1    72   1     0     1     1  0.0720     0.0720     0.001000  
   1    73   1     0     1     1  0.0730     0.0730     0.001000  
   1    74   1     0     1     1  0.0740     0.0740     0.001000  
   1    75   1     0     1     1  0.0750     0.0750     0.001000  
   1    76   1     0     1     1  0.0760     0.0760     0.001000  
   1    77   1     0     1     1  0.0770     0.0770     0.001000  
   1    78   1     0     1     1  0.0780     0.0780     0.001000  
   1    79   1     0     1     1  0.0790     0.0790     0.001000  
   1    80   1     0     1     1  0.0800     0.0800     0.001000  
   1    81   1     0     1     1  0.0810     0.0810     0.001000  
   1    82   1     0     1     1  0.0820     0.0820     0.001000  
   1    83   1     0     1     1  0.0830     0.0830     0.001000  
   1    84   1     0     1     1  0.0840     0.0840     0.001000  
   1    85   1     0     1     1  0.0850     0.0850     0.001000  
   1    86   1     0     1     1  0.0860     0.0860     0.001000  
   1    87   1     0     1     1  0.0870     0.0870     0.001000  
   1    88   1     0     1     1  0.0880     0.0880     0.001000  
   1    89   1     0     1     1  0.0890     0.0890     0.001000  
   1    90   1     0     1     1  0.0900     0.0900     0.001000  
   1    91   1     0     1     1  0.0910     0.0910     0.001000  
   1    92   1     0     1     1  0.0920     0.0920     0.001000  
   1    93   1     0     1     1  0.0930     0.0930     0.001000  
   1    94   1     0     1     1  0.0940     0.0940     0.001000  
   1    95   1     0     1     1  0.0950     0.0950     0.001000  
   1    96   1     0     1     1  0.0960     0.0960     0.001000  
   1    97   1     0     1     1  0.0970     0.0970     0.001000  
   1    98   1     0     1     1  0.0980     0.0980     0.001000  
   1    99   1     0     1     1  0.0990     0.0990     0.001000  
   1   100   1     0     1     1  0.100      0.100      0.001000  
   1   101   1     0     1     1  0.101      0.101      0.001000  
   1   102   1     0     1     1  0.102      0.102      0.001000  
   1   103   1     0     1     1  0.103      0.103      0.001000  
   1   104   1     0     1     1  0.104      0.104      0.001000  
   1   105   1     0     1     1  0.105      0.105      0.001000  
   1   106   1     0     1     1  0.106      0.106      0.001000  
   1   107   1     0     1     1  0.107      0.107      0.001000  
   1   108   1     0     1     1  0.108      0.108      0.001000  
   1   109   1     0     1     1  0.109      0.109      0.001000  
   1   110   1     0     1     1  0.110      0.110      0.001000  
   1   111   1     0     1     1  0.111      0.111      0.001000  
   1   112   1     0     1     1  0.112      0.112      0.001000  
   1   113   1     0     1     1  0.113      0.113      0.001000  
   1   114   1     0     1     1  0.114      0.114      0.001000  
   1   115   1     0     1     1  0.115      0.115      0.001000  
   1   116   1     0     1     1  0.116      0.116      0.001000  
   1   117   1     0     1     1  0.117      0.117      0.001000  
   1   118   1     0     1     1  0.118      0.118      0.001000  
   1   119   1     0     1     1  0.119      0.119      0.001000  
   1   120   1     0     1     1  0.120      0.120      0.001000  
   1   121   1     0     1     1  0.121      0.121      0.001000  
   1   122   1     0     1     1  0.122      0.122      0.001000  
   1   123   1     0     1     1  0.123      0.123      0.001000  
   1   124   1     0     1     1  0.124      0.124      0.001000  
   1   125   1     0     1     1  0.125      0.125      0.001000  
   1   126   1     0     1     1  0.126      0.126      0.001000  
   1   127   1     0     1     1  0.127      0.127      0.001000  
   1   128   1     0     1     1  0.128      0.128      0.001000  
   1   129   1     0     1     1  0.129      0.129      0.001000  
   1   130   1     0     1     1  0.130      0.130      0.001000  
   1   131   1     0     1     1  0.131      0.131      0.001000  
   1   132   1     0     1     1  0.132      0.132      0.001000  
   1   133   1     0     1     1  0.133      0.133      0.001000  
   1   134   1     0     1     1  0.134      0.134      0.001000  
   1   135   1     0     1     1  0.135      0.135      0.001000  
   1   136   1     0     1     1  0.136      0.136      0.001000  
   1   137   1     0     1     1  0.137      0.137      0.001000  
   1   138   1     0     1     1  0.138      0.138      0.001000  
   1   139   1     0     1     1  0.139      0.139      0.001000  
   1   140   1     0     1     1  0.140      0.140      0.001000  
   1   141   1     0     1     1  0.141      0.141      0.001000  
   1   142   1     0     1     1  0.142      0.142      0.001000  
   1   143   1     0     1     1  0.143      0.143      0.001000  
   1   144   1     0     1     1  0.144      0.144      0.001000  
   1   145   1     0     1     1  0.145      0.145      0.001000  
   1   146   1     0     1     1  0.146      0.146      0.001000  
   1   147   1     0     1     1  0.147      0.147      0.001000  
   1   148   1     0     1     1  0.148      0.148      0.001000  
   1   149   1     0     1     1  0.149      0.149      0.001000  
   1   150   1     0     1     1  0.150      0.150      0.001000  
   1   151   1     0     1     1  0.151      0.151      0.001000  
   1   152   1     0     1     1  0.152      0.152      0.001000  
   1   153   1     0     1     1  0.153      0.153      0.001000  
   1   154   1     0     1     1  0.154      0.154      0.001000  
   1   155   1     0     1     1  0.155      0.155      0.001000  
   1   156   1     0     1     1  0.156      0.156      0.001000  
   1   157   1     0     1     1  0.157      0.157      0.001000  
   1   158   1     0     1     1  0.158      0.158      0.001000  
   1   159   1     0     1     1  0.159      0.159      0.001000  
   1   160   1     0     1     1  0.160      0.160      0.001000  
   1   161   1     0     1     1  0.161      0.161      0.001000  
   1   162   1     0     1     1  0.162      0.162      0.001000  
   1   163   1     0     1     1  0.163      0.163      0.001000  
   1   164   1     0     1     1  0.164      0.164      0.001000  
   1   165   1     0     1     1  0.165      0.165      0.001000  
   1   166   1     0     1     1  0.166      0.166      0.001000  
   1   167   1     0     1     1  0.167      0.167      0.001000  
   1   168   1     0     1     1  0.168      0.168      0.001000  
   1   169   1     0     1     1  0.169      0.169      0.001000  
   1   170   1     0     1     1  0.170      0.170      0.001000  
   1   171   1     0     1     1  0.171      0.171      0.001000  
   1   172   1     0     1     1  0.172      0.172      0.001000  
   1   173   1     0     1     1  0.173      0.173      0.001000  
   1   174   1     0     1     1  0.174      0.174      0.001000  
   1   175   1     0     1     1  0.175      0.175      0.001000  
   1   176   1     0     1     1  0.176      0.176      0.001000  
   1   177   1     0     1     1  0.177      0.177      0.001000  
   1   178   1     0     1     1  0.178      0.178      0.001000  
   1   179   1     0     1     1  0.179      0.179      0.001000  
   1   180   1     0     1     1  0.180      0.180      0.001000  
   1   181   1     0     1     1  0.181      0.181      0.001000  
   1   182   1     0     1     1  0.182      0.182      0.001000  
   1   183   1     0     1     1  0.183      0.183      0.001000  
   1   184   1     0     1     1  0.184      0.184      0.001000  
   1   185   1     0     1     1  0.185      0.185      0.001000  
   1   186   1     0     1     1  0.186      0.186      0.001000  
   1   187   1     0     1     1  0.187      0.187      0.001000  
   1   188   1     0     1     1  0.188      0.188      0.001000  
   1   189   1     0     1     1  0.189      0.189      0.001000  
   1   190   1     0     1     1  0.190      0.190      0.001000  
   1   191   1     0     1     1  0.191      0.191      0.001000  
   1   192   1     0     1     1  0.192      0.192      0.001000  
   1   193   1     0     1     1  0.193      0.193      0.001000  
   1   194   1     0     1     1  0.194      0.194      0.001000  
   1   195   1     0     1     1  0.195      0.195      0.001000  
   1   196   1     0     1     1  0.196      0.196      0.001000  
   1   197   1     0     1     1  0.197      0.197      0.001000  
   1   198   1     0     1     1  0.198      0.198      0.001000  
   1   199   1     0     1     1  0.199      0.199      0.001000  
   1   200   1     0     1     1  0.200      0.200      0.001000  
   1   201   1     0     1     1  0.201      0.201      0.001000  
   1   202   1     0     1     1  0.202      0.202      0.001000  
   1   203   1     0     1     1  0.203      0.203      0.001000  
   1   204   1     0     1     1  0.204      0.204      0.001000  
   1   205   1     0     1     1  0.205      0.205      0.001000  
   1   206   1     0     1     1  0.206      0.206      0.001000  
   1   207   1     0     1     1  0.207      0.207      0.001000  
   1   208   1     0     1     1  0.208      0.208      0.001000  
   1   209   1     0     1     1  0.209      0.209      0.001000  
   1   210   1     0     1     1  0.210      0.210      0.001000  
   1   211   1     0     1     1  0.211      0.211      0.001000  
   1   212   1     0     1     1  0.212      0.212      0.001000  
   1   213   1     0     1     1  0.213      0.213      0.001000  
   1   214   1     0     1     1  0.214      0.214      0.001000  
   1   215   1     0     1     1  0.215      0.215      0.001000  
   1   216   1     0     1     1  0.216      0.216      0.001000  
   1   217   1     0     1     1  0.217      0.217      0.001000  
   1   218   1     0     1     1  0.218      0.218      0.001000  
   1   219   1     0     1     1  0.219      0.219      0.001000  
   1   220   1     0     1     1  0.220      0.220      0.001000  
   1   221   1     0     1     1  0.221      0.221      0.001000  
   1   222   1     0     1     1  0.222      0.222      0.001000  
   1   223   1     0     1     1  0.223      0.223      0.001000  
   1   224   1     0     1     1  0.224      0.224      0.001000  
   1   225   1     0     1     1  0.225      0.225      0.001000  
   1   226   1     0     1     1  0.226      0.226      0.001000  
   1   227   1     0     1     1  0.227      0.227      0.001000  
   1   228   1     0     1     1  0.228      0.228      0.001000  
   1   229   1     0     1     1  0.229      0.229      0.001000  
   1   230   1     0     1     1  0.230      0.230      0.001000  
   1   231   1     0     1     1  0.231      0.231      0.001000  
   1   232   1     0     1     1  0.232      0.232      0.001000  
   1   233   1     0     1     1  0.233      0.233      0.001000  
   1   234   1     0     1     1  0.234      0.234      0.001000  
   1   235   1     0     1     1  0.235      0.235      0.001000  
   1   236   1     0     1     1  0.236      0.236      0.001000  
   1   237   1     0     1     1  0.237      0.237      0.001000  
   1   238   1     0     1     1  0.238      0.238      0.001000  
   1   239   1     0     1     1  0.239      0.239      0.001000  
   1   240   1     0     1     1  0.240      0.240      0.001000  
   1   241   1     0     1     1  0.241      0.241      0.001000  
   1   242   1     0     1     1  0.242      0.242      0.001000  
   1   243   1     0     1     1  0.243      0.243      0.001000  
   1   244   1     0     1     1  0.244      0.244      0.001000  
   1   245   1     0     1     1  0.245      0.245      0.001000  
   1   246   1     0     1     1  0.246      0.246      0.001000  
   1   247   1     0     1     1  0.247      0.247      0.001000  
   1   248   1     0     1     1  0.248      0.248      0.001000  
   1   249   1     0     1     1  0.249      0.249      0.001000  
   1   250   1     0     1     1  0.250      0.250      0.001000  
   1   251   1     0     1     1  0.251      0.251      0.001000  
   1   252   1     0     1     1  0.252      0.252      0.001000  
   1   253   1     0     1     1  0.253      0.253      0.001000  
   1   254   1     0     1     1  0.254      0.254      0.001000  
   1   255   1     0     1     1  0.255      0.255      0.001000  
   1   256   1     0     1     1  0.256      0.256      0.001000  
   1   257   1     0     1     1  0.257      0.257      0.001000  
   1   258   1     0     1     1  0.258      0.258      0.001000  
   1   259   1     0     1     1  0.259      0.259      0.001000  
   1   260   1     0     1     1  0.260      0.260      0.001000  
   1   261   1     0     1     1  0.261      0.261      0.001000  
   1   262   1     0     1     1  0.262      0.262      0.001000  
   1   263   1     0     1     1  0.263      0.263      0.001000  
   1   264   1     0     1     1  0.264      0.264      0.001000  
   1   265   1     0     1     1  0.265      0.265      0.001000  
   1   266   1     0     1     1  0.266      0.266      0.001000  
   1   267   1     0     1     1  0.267      0.267      0.001000  
   1   268   1     0     1     1  0.268      0.268      0.001000  
   1   269   1     0     1     1  0.269      0.269      0.001000  
   1   270   1     0     1     1  0.270      0.270      0.001000  
   1   271   1     0     1     1  0.271      0.271      0.001000  
   1   272   1     0     1     1  0.272      0.272      0.001000  
   1   273   1     0     1     1  0.273      0.273      0.001000  
   1   274   1     0     1     1  0.274      0.274      0.001000  
   1   275   1     0     1     1  0.275      0.275      0.001000  
   1   276   1     0     1     1  0.276      0.276      0.001000  
   1   277   1     0     1     1  0.277      0.277      0.001000  
   1   278   1     0     1     1  0.278      0.278      0.001000  
   1   279   1     0     1     1  0.279      0.279      0.001000  
   1   280   1     0     1     1  0.280      0.280      0.001000  
   1   281   1     0     1     1  0.281      0.281      0.001000  
   1   282   1     0     1     1  0.282      0.282      0.001000  
   1   283   1     0     1     1  0.283      0.283      0.001000  
   1   284   1     0     1     1  0.284      0.284      0.001000  
   1   285   1     0     1     1  0.285      0.285      0.001000  
   1   286   1     0     1     1  0.286      0.286      0.001000  
   1   287   1     0     1     1  0.287      0.287      0.001000  
   1   288   1     0     1     1  0.288      0.288      0.001000  
   1   289   1     0     1     1  0.289      0.289      0.001000  
   1   290   1     0     1     1  0.290      0.290      0.001000  
   1   291   1     0     1     1  0.291      0.291      0.001000  
   1   292   1     0     1     1  0.292      0.292      0.001000  
   1   293   1     0     1     1  0.293      0.293      0.001000  
   1   294   1     0     1     1  0.294      0.294      0.001000  
   1   295   1     0     1     1  0.295      0.295      0.001000  
   1   296   1     0     1     1  0.296      0.296      0.001000  
   1   297   1     0     1     1  0.297      0.297      0.001000  
   1   298   1     0     1     1  0.298      0.298      0.001000  
   1   299   1     0     1     1  0.299      0.299      0.001000  
   1   300   1     0     1     1  0.300      0.300      0.001000  
   1   301   1     0     1     1  0.301      0.301      0.001000  
   1   302   1     0     1     1  0.302      0.302      0.001000  
   1   303   1     0     1     1  0.303      0.303      0.001000  
   1   304   1     0     1     1  0.304      0.304      0.001000  
   1   305   1     0     1     1  0.305      0.305      0.001000  
   1   306   1     0     1     1  0.306      0.306      0.001000  
   1   307   1     0     1     1  0.307      0.307      0.001000  
   1   308   1     0     1     1  0.308      0.308      0.001000  
   1   309   1     0     1     1  0.309      0.309      0.001000  
   1   310   1     0     1     1  0.310      0.310      0.001000  
   1   311   1     0     1     1  0.311      0.311      0.001000  
   1   312   1     0     1     1  0.312      0.312      0.001000  
   1   313   1     0     1     1  0.313      0.313      0.001000  
   1   314   1     0     1     1  0.314      0.314      0.001000  
   1   315   1     0     1     1  0.315      0.315      0.001000  
   1   316   1     0     1     1  0.316      0.316      0.001000  
   1   317   1     0     1     1  0.317      0.317      0.001000  
   1   318   1     0     1     1  0.318      0.318      0.001000  
   1   319   1     0     1     1  0.319      0.319      0.001000  
   1   320   1     0     1     1  0.320      0.320      0.001000  
   1   321   1     0     1     1  0.321      0.321      0.001000  
   1   322   1     0     1     1  0.322      0.322      0.001000  
   1   323   1     0     1     1  0.323      0.323      0.001000  
   1   324   1     0     1     1  0.324      0.324      0.001000  
   1   325   1     0     1     1  0.325      0.325      0.001000  
   1   326   1     0     1     1  0.326      0.326      0.001000  
   1   327   1     0     1     1  0.327      0.327      0.001000  
   1   328   1     0     1     1  0.328      0.328      0.001000  
   1   329   1     0     1     1  0.329      0.329      0.001000  
   1   330   1     0     1     1  0.330      0.330      0.001000  
   1   331   1     0     1     1  0.331      0.331      0.001000  
   1   332   1     0     1     1  0.332      0.332      0.001000  
   1   333   1     0     1     1  0.333      0.333      0.001000  
   1   334   1     0     1     1  0.334      0.334      0.001000  
   1   335   1     0     1     1  0.335      0.335      0.001000  
   1   336   1     0     1     1  0.336      0.336      0.001000  
   1   337   1     0     1     1  0.337      0.337      0.001000  
   1   338   1     0     1     1  0.338      0.338      0.001000  
   1   339   1     0     1     1  0.339      0.339      0.001000  
   1   340   1     0     1     1  0.340      0.340      0.001000  
   1   341   1     0     1     1  0.341      0.341      0.001000  
   1   342   1     0     1     1  0.342      0.342      0.001000  
   1   343   1     0     1     1  0.343      0.343      0.001000  
   1   344   1     0     1     1  0.344      0.344      0.001000  
   1   345   1     0     1     1  0.345      0.345      0.001000  
   1   346   1     0     1     1  0.346      0.346      0.001000  
   1   347   1     0     1     1  0.347      0.347      0.001000  
   1   348   1     0     1     1  0.348      0.348      0.001000  
   1   349   1     0     1     1  0.349      0.349      0.001000  
   1   350   1     0     1     1  0.350      0.350      0.001000  
   1   351   1     0     1     1  0.351      0.351      0.001000  
   1   352   1     0     1     1  0.352      0.352      0.001000  
   1   353   1     0     1     1  0.353      0.353      0.001000  
   1   354   1     0     1     1  0.354      0.354      0.001000  
   1   355   1     0     1     1  0.355      0.355      0.001000  
   1   356   1     0     1     1  0.356      0.356      0.001000  
   1   357   1     0     1     1  0.357      0.357      0.001000  
   1   358   1     0     1     1  0.358      0.358      0.001000  
   1   359   1     0     1     1  0.359      0.359      0.001000  
   1   360   1     0     1     1  0.360      0.360      0.001000  
   1   361   1     0     1     1  0.361      0.361      0.001000  
   1   362   1     0     1     1  0.362      0.362      0.001000  
   1   363   1     0     1     1  0.363      0.363      0.001000  
   1   364   1     0     1     1  0.364      0.364      0.001000  
   1   365   1     0     1     1  0.365      0.365      0.001000  
   1   366   1     0     1     1  0.366      0.366      0.001000  
   1   367   1     0     1     1  0.367      0.367      0.001000  
   1   368   1     0     1     1  0.368      0.368      0.001000  
   1   369   1     0     1     1  0.369      0.369      0.001000  
   1   370   1     0     1     1  0.370      0.370      0.001000  
   1   371   1     0     1     1  0.371      0.371      0.001000  
   1   372   1     0     1     1  0.372      0.372      0.001000  
   1   373   1     0     1     1  0.373      0.373      0.001000  
   1   374   1     0     1     1  0.374      0.374      0.001000  
   1   375   1     0     1     1  0.375      0.375      0.001000  
   1   376   1     0     1     1  0.376      0.376      0.001000  
   1   377   1     0     1     1  0.377      0.377      0.001000  
   1   378   1     0     1     1  0.378      0.378      0.001000  
   1   379   1     0     1     1  0.379      0.379      0.001000  
   1   380   1     0     1     1  0.380      0.380      0.001000  
   1   381   1     0     1     1  0.381      0.381      0.001000  
   1   382   1     0     1     1  0.382      0.382      0.001000  
   1   383   1     0     1     1  0.383      0.383      0.001000  
   1   384   1     0     1     1  0.384      0.384      0.001000  
   1   385   1     0     1     1  0.385      0.385      0.001000  
   1   386   1     0     1     1  0.386      0.386      0.001000  
   1   387   1     0     1     1  0.387      0.387      0.001000  
   1   388   1     0     1     1  0.388      0.388      0.001000  
   1   389   1     0     1     1  0.389      0.389      0.001000  
   1   390   1     0     1     1  0.390      0.390      0.001000  
   1   391   1     0     1     1  0.391      0.391      0.001000  
   1   392   1     0     1     1  0.392      0.392      0.001000  
   1   393   1     0     1     1  0.393      0.393      0.001000  
   1   394   1     0     1     1  0.394      0.394      0.001000  
   1   395   1     0     1     1  0.395      0.395      0.001000  
   1   396   1     0     1     1  0.396      0.396      0.001000  
   1   397   1     0     1     1  0.397      0.397      0.001000  
   1   398   1     0     1     1  0.398      0.398      0.001000  
   1   399   1     0     1     1  0.399      0.399      0.001000  
   1   400   1     0     1     1  0.400      0.400      0.001000  
   1   401   1     0     1     1  0.401      0.401      0.001000  
   1   402   1     0     1     1  0.402      0.402      0.001000  
   1   403   1     0     1     1  0.403      0.403      0.001000  
   1   404   1     0     1     1  0.404      0.404      0.001000  
   1   405   1     0     1     1  0.405      0.405      0.001000  
   1   406   1     0     1     1  0.406      0.406      0.001000  
   1   407   1     0     1     1  0.407      0.407      0.001000  
   1   408   1     0     1     1  0.408      0.408      0.001000  
   1   409   1     0     1     1  0.409      0.409      0.001000  
   1   410   1     0     1     1  0.410      0.410      0.001000  
   1   411   1     0     1     1  0.411      0.411      0.001000  
   1   412   1     0     1     1  0.412      0.412      0.001000  
   1   413   1     0     1     1  0.413      0.413      0.001000  
   1   414   1     0     1     1  0.414      0.414      0.001000  
   1   415   1     0     1     1  0.415      0.415      0.001000  
   1   416   1     0     1     1  0.416      0.416      0.001000  
   1   417   1     0     1     1  0.417      0.417      0.001000  
   1   418   1     0     1     1  0.418      0.418      0.001000  
   1   419   1     0     1     1  0.419      0.419      0.001000  
   1   420   1     0     1     1  0.420      0.420      0.001000  
   1   421   1     0     1     1  0.421      0.421      0.001000  
   1   422   1     0     1     1  0.422      0.422      0.001000  
   1   423   1     0     1     1  0.423      0.423      0.001000  
   1   424   1     0     1     1  0.424      0.424      0.001000  
   1   425   1     0     1     1  0.425      0.425      0.001000  
   1   426   1     0     1     1  0.426      0.426      0.001000  
   1   427   1     0     1     1  0.427      0.427      0.001000  
   1   428   1     0     1     1  0.428      0.428      0.001000  
   1   429   1     0     1     1  0.429      0.429      0.001000  
   1   430   1     0     1     1  0.430      0.430      0.001000  
   1   431   1     0     1     1  0.431      0.431      0.001000  
   1   432   1     0     1     1  0.432      0.432      0.001000  
   1   433   1     0     1     1  0.433      0.433      0.001000  
   1   434   1     0     1     1  0.434      0.434      0.001000  
   1   435   1     0     1     1  0.435      0.435      0.001000  
   1   436   1     0     1     1  0.436      0.436      0.001000  
   1   437   1     0     1     1  0.437      0.437      0.001000  
   1   438   1     0     1     1  0.438      0.438      0.001000  
   1   439   1     0     1     1  0.439      0.439      0.001000  
   1   440   1     0     1     1  0.440      0.440      0.001000  
   1   441   1     0     1     1  0.441      0.441      0.001000  
   1   442   1     0     1     1  0.442      0.442      0.001000  
   1   443   1     0     1     1  0.443      0.443      0.001000  
   1   444   1     0     1     1  0.444      0.444      0.001000  
   1   445   1     0     1     1  0.445      0.445      0.001000  
   1   446   1     0     1     1  0.446      0.446      0.001000  
   1   447   1     0     1     1  0.447      0.447      0.001000  
   1   448   1     0     1     1  0.448      0.448      0.001000  
   1   449   1     0     1     1  0.449      0.449      0.001000  
   1   450   1     0     1     1  0.450      0.450      0.001000  
   1   451   1     0     1     1  0.451      0.451      0.001000  
   1   452   1     0     1     1  0.452      0.452      0.001000  
   1   453   1     0     1     1  0.453      0.453      0.001000  
   1   454   1     0     1     1  0.454      0.454      0.001000  
   1   455   1     0     1     1  0.455      0.455      0.001000  
   1   456   1     0     1     1  0.456      0.456      0.001000  
   1   457   1     0     1     1  0.457      0.457      0.001000  
   1   458   1     0     1     1  0.458      0.458      0.001000  
   1   459   1     0     1     1  0.459      0.459      0.001000  
   1   460   1     0     1     1  0.460      0.460      0.001000  
   1   461   1     0     1     1  0.461      0.461      0.001000  
   1   462   1     0     1     1  0.462      0.462      0.001000  
   1   463   1     0     1     1  0.463      0.463      0.001000  
   1   464   1     0     1     1  0.464      0.464      0.001000  
   1   465   1     0     1     1  0.465      0.465      0.001000  
   1   466   1     0     1     1  0.466      0.466      0.001000  
   1   467   1     0     1     1  0.467      0.467      0.001000  
   1   468   1     0     1     1  0.468      0.468      0.001000  
   1   469   1     0     1     1  0.469      0.469      0.001000  
   1   470   1     0     1     1  0.470      0.470      0.001000  
   1   471   1     0     1     1  0.471      0.471      0.001000  
   1   472   1     0     1     1  0.472      0.472      0.001000  
   1   473   1     0     1     1  0.473      0.473      0.001000  
   1   474   1     0     1     1  0.474      0.474      0.001000  
   1   475   1     0     1     1  0.475      0.475      0.001000  
   1   476   1     0     1     1  0.476      0.476      0.001000  
   1   477   1     0     1     1  0.477      0.477      0.001000  
   1   478   1     0     1     1  0.478      0.478      0.001000  
   1   479   1     0     1     1  0.479      0.479      0.001000  
   1   480   1     0     1     1  0.480      0.480      0.001000  
   1   481   1     0     1     1  0.481      0.481      0.001000  
   1   482   1     0     1     1  0.482      0.482      0.001000  
   1   483   1     0     1     1  0.483      0.483      0.001000  
   1   484   1     0     1     1  0.484      0.484      0.001000  
   1   485   1     0     1     1  0.485      0.485      0.001000  
   1   486   1     0     1     1  0.486      0.486      0.001000  
   1   487   1     0     1     1  0.487      0.487      0.001000  
   1   488   1     0     1     1  0.488      0.488      0.001000  
   1   489   1     0     1     1  0.489      0.489      0.001000  
   1   490   1     0     1     1  0.490      0.490      0.001000  
   1   491   1     0     1     1  0.491      0.491      0.001000  
   1   492   1     0     1     1  0.492      0.492      0.001000  
   1   493   1     0     1     1  0.493      0.493      0.001000  
   1   494   1     0     1     1  0.494      0.494      0.001000  
   1   495   1     0     1     1  0.495      0.495      0.001000  
   1   496   1     0     1     1  0.496      0.496      0.001000  
   1   497   1     0     1     1  0.497      0.497      0.001000  
   1   498   1     0     1     1  0.498      0.498      0.001000  
   1   499   1     0     1     1  0.499      0.499      0.001000  
   1   500   1     0     1     1  0.500      0.500      0.001000  
   1   501   1     0     1     1  0.501      0.501      0.001000  
   1   502   1     0     1     1  0.502      0.502      0.001000  
   1   503   1     0     1     1  0.503      0.503      0.001000  
   1   504   1     0     1     1  0.504      0.504      0.001000  
   1   505   1     0     1     1  0.505      0.505      0.001000  
   1   506   1     0     1     1  0.506      0.506      0.001000  
   1   507   1     0     1     1  0.507      0.507      0.001000  
   1   508   1     0     1     1  0.508      0.508      0.001000  
   1   509   1     0     1     1  0.509      0.509      0.001000  
   1   510   1     0     1     1  0.510      0.510      0.001000  
   1   511   1     0     1     1  0.511      0.511      0.001000  
   1   512   1     0     1     1  0.512      0.512      0.001000  
   1   513   1     0     1     1  0.513      0.513      0.001000  
   1   514   1     0     1     1  0.514      0.514      0.001000  
   1   515   1     0     1     1  0.515      0.515      0.001000  
   1   516   1     0     1     1  0.516      0.516      0.001000  
   1   517   1     0     1     1  0.517      0.517      0.001000  
   1   518   1     0     1     1  0.518      0.518      0.001000  
   1   519   1     0     1     1  0.519      0.519      0.001000  
   1   520   1     0     1     1  0.520      0.520      0.001000  
   1   521   1     0     1     1  0.521      0.521      0.001000  
   1   522   1     0     1     1  0.522      0.522      0.001000  
   1   523   1     0     1     1  0.523      0.523      0.001000  
   1   524   1     0     1     1  0.524      0.524      0.001000  
   1   525   1     0     1     1  0.525      0.525      0.001000  
   1   526   1     0     1     1  0.526      0.526      0.001000  
   1   527   1     0     1     1  0.527      0.527      0.001000  
   1   528   1     0     1     1  0.528      0.528      0.001000  
   1   529   1     0     1     1  0.529      0.529      0.001000  
   1   530   1     0     1     1  0.530      0.530      0.001000  
   1   531   1     0     1     1  0.531      0.531      0.001000  
   1   532   1     0     1     1  0.532      0.532      0.001000  
   1   533   1     0     1     1  0.533      0.533      0.001000  
   1   534   1     0     1     1  0.534      0.534      0.001000  
   1   535   1     0     1     1  0.535      0.535      0.001000  
   1   536   1     0     1     1  0.536      0.536      0.001000  
   1   537   1     0     1     1  0.537      0.537      0.001000  
   1   538   1     0     1     1  0.538      0.538      0.001000  
   1   539   1     0     1     1  0.539      0.539      0.001000  
   1   540   1     0     1     1  0.540      0.540      0.001000  
   1   541   1     0     1     1  0.541      0.541      0.001000  
   1   542   1     0     1     1  0.542      0.542      0.001000  
   1   543   1     0     1     1  0.543      0.543      0.001000  
   1   544   1     0     1     1  0.544      0.544      0.001000  
   1   545   1     0     1     1  0.545      0.545      0.001000  
   1   546   1     0     1     1  0.546      0.546      0.001000  
   1   547   1     0     1     1  0.547      0.547      0.001000  
   1   548   1     0     1     1  0.548      0.548      0.001000  
   1   549   1     0     1     1  0.549      0.549      0.001000  
   1   550   1     0     1     1  0.550      0.550      0.001000  
   1   551   1     0     1     1  0.551      0.551      0.001000  
   1   552   1     0     1     1  0.552      0.552      0.001000  
   1   553   1     0     1     1  0.553      0.553      0.001000  
   1   554   1     0     1     1  0.554      0.554      0.001000  
   1   555   1     0     1     1  0.555      0.555      0.001000  
   1   556   1     0     1     1  0.556      0.556      0.001000  
   1   557   1     0     1     1  0.557      0.557      0.001000  
   1   558   1     0     1     1  0.558      0.558      0.001000  
   1   559   1     0     1     1  0.559      0.559      0.001000  
   1   560   1     0     1     1  0.560      0.560      0.001000  
   1   561   1     0     1     1  0.561      0.561      0.001000  
   1   562   1     0     1     1  0.562      0.562      0.001000  
   1   563   1     0     1     1  0.563      0.563      0.001000  
   1   564   1     0     1     1  0.564      0.564      0.001000  
   1   565   1     0     1     1  0.565      0.565      0.001000  
   1   566   1     0     1     1  0.566      0.566      0.001000  
   1   567   1     0     1     1  0.567      0.567      0.001000  
   1   568   1     0     1     1  0.568      0.568      0.001000  
   1   569   1     0     1     1  0.569      0.569      0.001000  
   1   570   1     0     1     1  0.570      0.570      0.001000  
   1   571   1     0     1     1  0.571      0.571      0.001000  
   1   572   1     0     1     1  0.572      0.572      0.001000  
   1   573   1     0     1     1  0.573      0.573      0.001000  
   1   574   1     0     1     1  0.574      0.574      0.001000  
   1   575   1     0     1     1  0.575      0.575      0.001000  
   1   576   1     0     1     1  0.576      0.576      0.001000  
   1   577   1     0     1     1  0.577      0.577      0.001000  
   1   578   1     0     1     1  0.578      0.578      0.001000  
   1   579   1     0     1     1  0.579      0.579      0.001000  
   1   580   1     0     1     1  0.580      0.580      0.001000  
   1   581   1     0     1     1  0.581      0.581      0.001000  
   1   582   1     0     1     1  0.582      0.582      0.001000  
   1   583   1     0     1     1  0.583      0.583      0.001000  
   1   584   1     0     1     1  0.584      0.584      0.001000  
   1   585   1     0     1     1  0.585      0.585      0.001000  
   1   586   1     0     1     1  0.586      0.586      0.001000  
   1   587   1     0     1     1  0.587      0.587      0.001000  
   1   588   1     0     1     1  0.588      0.588      0.001000  
   1   589   1     0     1     1  0.589      0.589      0.001000  
   1   590   1     0     1     1  0.590      0.590      0.001000  
   1   591   1     0     1     1  0.591      0.591      0.001000  
   1   592   1     0     1     1  0.592      0.592      0.001000  
   1   593   1     0     1     1  0.593      0.593      0.001000  
   1   594   1     0     1     1  0.594      0.594      0.001000  
   1   595   1     0     1     1  0.595      0.595      0.001000  
   1   596   1     0     1     1  0.596      0.596      0.001000  
   1   597   1     0     1     1  0.597      0.597      0.001000  
   1   598   1     0     1     1  0.598      0.598      0.001000  
   1   599   1     0     1     1  0.599      0.599      0.001000  
   1   600   1     0     1     1  0.600      0.600      0.001000  
   1   601   1     0     1     1  0.601      0.601      0.001000  
   1   602   1     0     1     1  0.602      0.602      0.001000  
   1   603   1     0     1     1  0.603      0.603      0.001000  
   1   604   1     0     1     1  0.604      0.604      0.001000  
   1   605   1     0     1     1  0.605      0.605      0.001000  
   1   606   1     0     1     1  0.606      0.606      0.001000  
   1   607   1     0     1     1  0.607      0.607      0.001000  
   1   608   1     0     1     1  0.608      0.608      0.001000  
   1   609   1     0     1     1  0.609      0.609      0.001000  
   1   610   1     0     1     1  0.610      0.610      0.001000  
   1   611   1     0     1     1  0.611      0.611      0.001000  
   1   612   1     0     1     1  0.612      0.612      0.001000  
   1   613   1     0     1     1  0.613      0.613      0.001000  
   1   614   1     0     1     1  0.614      0.614      0.001000  
   1   615   1     0     1     1  0.615      0.615      0.001000  
   1   616   1     0     1     1  0.616      0.616      0.001000  
   1   617   1     0     1     1  0.617      0.617      0.001000  
   1   618   1     0     1     1  0.618      0.618      0.001000  
   1   619   1     0     1     1  0.619      0.619      0.001000  
   1   620   1     0     1     1  0.620      0.620      0.001000  
   1   621   1     0     1     1  0.621      0.621      0.001000  
   1   622   1     0     1     1  0.622      0.622      0.001000  
   1   623   1     0     1     1  0.623      0.623      0.001000  
   1   624   1     0     1     1  0.624      0.624      0.001000  
   1   625   1     0     1     1  0.625      0.625      0.001000  
   1   626   1     0     1     1  0.626      0.626      0.001000  
   1   627   1     0     1     1  0.627      0.627      0.001000  
   1   628   1     0     1     1  0.628      0.628      0.001000  
   1   629   1     0     1     1  0.629      0.629      0.001000  
   1   630   1     0     1     1  0.630      0.630      0.001000  
   1   631   1     0     1     1  0.631      0.631      0.001000  
   1   632   1     0     1     1  0.632      0.632      0.001000  
   1   633   1     0     1     1  0.633      0.633      0.001000  
   1   634   1     0     1     1  0.634      0.634      0.001000  
   1   635   1     0     1     1  0.635      0.635      0.001000  
   1   636   1     0     1     1  0.636      0.636      0.001000  
   1   637   1     0     1     1  0.637      0.637      0.001000  
   1   638   1     0     1     1  0.638      0.638      0.001000  
   1   639   1     0     1     1  0.639      0.639      0.001000  
   1   640   1     0     1     1  0.640      0.640      0.001000  
   1   641   1     0     1     1  0.641      0.641      0.001000  
   1   642   1     0     1     1  0.642      0.642      0.001000  
   1   643   1     0     1     1  0.643      0.643      0.001000  
   1   644   1     0     1     1  0.644      0.644      0.001000  
   1   645   1     0     1     1  0.645      0.645      0.001000  
   1   646   1     0     1     1  0.646      0.646      0.001000  
   1   647   1     0     1     1  0.647      0.647      0.001000  
   1   648   1     0     1     1  0.648      0.648      0.001000  
   1   649   1     0     1     1  0.649      0.649      0.001000  
   1   650   1     0     1     1  0.650      0.650      0.001000  
   1   651   1     0     1     1  0.651      0.651      0.001000  
   1   652   1     0     1     1  0.652      0.652      0.001000  
   1   653   1     0     1     1  0.653      0.653      0.001000  
   1   654   1     0     1     1  0.654      0.654      0.001000  
   1   655   1     0     1     1  0.655      0.655      0.001000  
   1   656   1     0     1     1  0.656      0.656      0.001000  
   1   657   1     0     1     1  0.657      0.657      0.001000  
   1   658   1     0     1     1  0.658      0.658      0.001000  
   1   659   1     0     1     1  0.659      0.659      0.001000  
   1   660   1     0     1     1  0.660      0.660      0.001000  
   1   661   1     0     1     1  0.661      0.661      0.001000  
   1   662   1     0     1     1  0.662      0.662      0.001000  
   1   663   1     0     1     1  0.663      0.663      0.001000  
   1   664   1     0     1     1  0.664      0.664      0.001000  
   1   665   1     0     1     1  0.665      0.665      0.001000  
   1   666   1     0     1     1  0.666      0.666      0.001000  
   1   667   1     0     1     1  0.667      0.667      0.001000  
   1   668   1     0     1     1  0.668      0.668      0.001000  
   1   669   1     0     1     1  0.669      0.669      0.001000  
   1   670   1     0     1     1  0.670      0.670      0.001000  
   1   671   1     0     1     1  0.671      0.671      0.001000  
   1   672   1     0     1     1  0.672      0.672      0.001000  
   1   673   1     0     1     1  0.673      0.673      0.001000  
   1   674   1     0     1     1  0.674      0.674      0.001000  
   1   675   1     0     1     1  0.675      0.675      0.001000  
   1   676   1     0     1     1  0.676      0.676      0.001000  
   1   677   1     0     1     1  0.677      0.677      0.001000  
   1   678   1     0     1     1  0.678      0.678      0.001000  
   1   679   1     0     1     1  0.679      0.679      0.001000  
   1   680   1     0     1     1  0.680      0.680      0.001000  
   1   681   1     0     1     1  0.681      0.681      0.001000  
   1   682   1     0     1     1  0.682      0.682      0.001000  
   1   683   1     0     1     1  0.683      0.683      0.001000  
   1   684   1     0     1     1  0.684      0.684      0.001000  
   1   685   1     0     1     1  0.685      0.685      0.001000  
   1   686   1     0     1     1  0.686      0.686      0.001000  
   1   687   1     0     1     1  0.687      0.687      0.001000  
   1   688   1     0     1     1  0.688      0.688      0.001000  
   1   689   1     0     1     1  0.689      0.689      0.001000  
   1   690   1     0     1     1  0.690      0.690      0.001000  
   1   691   1     0     1     1  0.691      0.691      0.001000  
   1   692   1     0     1     1  0.692      0.692      0.001000  
   1   693   1     0     1     1  0.693      0.693      0.001000  
   1   694   1     0     1     1  0.694      0.694      0.001000  
   1   695   1     0     1     1  0.695      0.695      0.001000  
   1   696   1     0     1     1  0.696      0.696      0.001000  
   1   697   1     0     1     1  0.697      0.697      0.001000  
   1   698   1     0     1     1  0.698      0.698      0.001000  
   1   699   1     0     1     1  0.699      0.699      0.001000  
   1   700   1     0     1     1  0.700      0.700      0.001000  
   1   701   1     0     1     1  0.701      0.701      0.001000  
   1   702   1     0     1     1  0.702      0.702      0.001000  
   1   703   1     0     1     1  0.703      0.703      0.001000  
   1   704   1     0     1     1  0.704      0.704      0.001000  
   1   705   1     0     1     1  0.705      0.705      0.001000  
   1   706   1     0     1     1  0.706      0.706      0.001000  
   1   707   1     0     1     1  0.707      0.707      0.001000  
   1   708   1     0     1     1  0.708      0.708      0.001000  
   1   709   1     0     1     1  0.709      0.709      0.001000  
   1   710   1     0     1     1  0.710      0.710      0.001000  
   1   711   1     0     1     1  0.711      0.711      0.001000  
   1   712   1     0     1     1  0.712      0.712      0.001000  
   1   713   1     0     1     1  0.713      0.713      0.001000  
   1   714   1     0     1     1  0.714      0.714      0.001000  
   1   715   1     0     1     1  0.715      0.715      0.001000  
   1   716   1     0     1     1  0.716      0.716      0.001000  
   1   717   1     0     1     1  0.717      0.717      0.001000  
   1   718   1     0     1     1  0.718      0.718      0.001000  
   1   719   1     0     1     1  0.719      0.719      0.001000  
   1   720   1     0     1     1  0.720      0.720      0.001000  
   1   721   1     0     1     1  0.721      0.721      0.001000  
   1   722   1     0     1     1  0.722      0.722      0.001000  
   1   723   1     0     1     1  0.723      0.723      0.001000  
   1   724   1     0     1     1  0.724      0.724      0.001000  
   1   725   1     0     1     1  0.725      0.725      0.001000  
   1   726   1     0     1     1  0.726      0.726      0.001000  
   1   727   1     0     1     1  0.727      0.727      0.001000  
   1   728   1     0     1     1  0.728      0.728      0.001000  
   1   729   1     0     1     1  0.729      0.729      0.001000  
   1   730   1     0     1     1  0.730      0.730      0.001000  
   1   731   1     0     1     1  0.731      0.731      0.001000  
   1   732   1     0     1     1  0.732      0.732      0.001000  
   1   733   1     0     1     1  0.733      0.733      0.001000  
   1   734   1     0     1     1  0.734      0.734      0.001000  
   1   735   1     0     1     1  0.735      0.735      0.001000  
   1   736   1     0     1     1  0.736      0.736      0.001000  
   1   737   1     0     1     1  0.737      0.737      0.001000  
   1   738   1     0     1     1  0.738      0.738      0.001000  
   1   739   1     0     1     1  0.739      0.739      0.001000  
   1   740   1     0     1     1  0.740      0.740      0.001000  
   1   741   1     0     1     1  0.741      0.741      0.001000  
   1   742   1     0     1     1  0.742      0.742      0.001000  
   1   743   1     0     1     1  0.743      0.743      0.001000  
   1   744   1     0     1     1  0.744      0.744      0.001000  
   1   745   1     0     1     1  0.745      0.745      0.001000  
   1   746   1     0     1     1  0.746      0.746      0.001000  
   1   747   1     0     1     1  0.747      0.747      0.001000  
   1   748   1     0     1     1  0.748      0.748      0.001000  
   1   749   1     0     1     1  0.749      0.749      0.001000  
   1   750   1     0     1     1  0.750      0.750      0.001000  
   1   751   1     0     1     1  0.751      0.751      0.001000  
   1   752   1     0     1     1  0.752      0.752      0.001000  
   1   753   1     0     1     1  0.753      0.753      0.001000  
   1   754   1     0     1     1  0.754      0.754      0.001000  
   1   755   1     0     1     1  0.755      0.755      0.001000  
   1   756   1     0     1     1  0.756      0.756      0.001000  
   1   757   1     0     1     1  0.757      0.757      0.001000  
   1   758   1     0     1     1  0.758      0.758      0.001000  
   1   759   1     0     1     1  0.759      0.759      0.001000  
   1   760   1     0     1     1  0.760      0.760      0.001000  
   1   761   1     0     1     1  0.761      0.761      0.001000  
   1   762   1     0     1     1  0.762      0.762      0.001000  
   1   763   1     0     1     1  0.763      0.763      0.001000  
   1   764   1     0     1     1  0.764      0.764      0.001000  
   1   765   1     0     1     1  0.765      0.765      0.001000  
   1   766   1     0     1     1  0.766      0.766      0.001000  
   1   767   1     0     1     1  0.767      0.767      0.001000  
   1   768   1     0     1     1  0.768      0.768      0.001000  
   1   769   1     0     1     1  0.769      0.769      0.001000  
   1   770   1     0     1     1  0.770      0.770      0.001000  
   1   771   1     0     1     1  0.771      0.771      0.001000  
   1   772   1     0     1     1  0.772      0.772      0.001000  
   1   773   1     0     1     1  0.773      0.773      0.001000  
   1   774   1     0     1     1  0.774      0.774      0.001000  
   1   775   1     0     1     1  0.775      0.775      0.001000  
   1   776   1     0     1     1  0.776      0.776      0.001000  
   1   777   1     0     1     1  0.777      0.777      0.001000  
   1   778   1     0     1     1  0.778      0.778      0.001000  
   1   779   1     0     1     1  0.779      0.779      0.001000  
   1   780   1     0     1     1  0.780      0.780      0.001000  
   1   781   1     0     1     1  0.781      0.781      0.001000  
   1   782   1     0     1     1  0.782      0.782      0.001000  
   1   783   1     0     1     1  0.783      0.783      0.001000  
   1   784   1     0     1     1  0.784      0.784      0.001000  
   1   785   1     0     1     1  0.785      0.785      0.001000  
   1   786   1     0     1     1  0.786      0.786      0.001000  
   1   787   1     0     1     1  0.787      0.787      0.001000  
   1   788   1     0     1     1  0.788      0.788      0.001000  
   1   789   1     0     1     1  0.789      0.789      0.001000  
   1   790   1     0     1     1  0.790      0.790      0.001000  
   1   791   1     0     1     1  0.791      0.791      0.001000  
   1   792   1     0     1     1  0.792      0.792      0.001000  
   1   793   1     0     1     1  0.793      0.793      0.001000  
   1   794   1     0     1     1  0.794      0.794      0.001000  
   1   795   1     0     1     1  0.795      0.795      0.001000  
   1   796   1     0     1     1  0.796      0.796      0.001000  
   1   797   1     0     1     1  0.797      0.797      0.001000  
   1   798   1     0     1     1  0.798      0.798      0.001000  
   1   799   1     0     1     1  0.799      0.799      0.001000  
   1   800   1     0     1     1  0.800      0.800      0.001000  
   1   801   1     0     1     1  0.801      0.801      0.001000  
   1   802   1     0     1     1  0.802      0.802      0.001000  
   1   803   1     0     1     1  0.803      0.803      0.001000  
   1   804   1     0     1     1  0.804      0.804      0.001000  
   1   805   1     0     1     1  0.805      0.805      0.001000  
   1   806   1     0     1     1  0.806      0.806      0.001000  
   1   807   1     0     1     1  0.807      0.807      0.001000  
   1   808   1     0     1     1  0.808      0.808      0.001000  
   1   809   1     0     1     1  0.809      0.809      0.001000  
   1   810   1     0     1     1  0.810      0.810      0.001000  
   1   811   1     0     1     1  0.811      0.811      0.001000  
   1   812   1     0     1     1  0.812      0.812      0.001000  
   1   813   1     0     1     1  0.813      0.813      0.001000  
   1   814   1     0     1     1  0.814      0.814      0.001000  
   1   815   1     0     1     1  0.815      0.815      0.001000  
   1   816   1     0     1     1  0.816      0.816      0.001000  
   1   817   1     0     1     1  0.817      0.817      0.001000  
   1   818   1     0     1     1  0.818      0.818      0.001000  
   1   819   1     0     1     1  0.819      0.819      0.001000  
   1   820   1     0     1     1  0.820      0.820      0.001000  
   1   821   1     0     1     1  0.821      0.821      0.001000  
   1   822   1     0     1     1  0.822      0.822      0.001000  
   1   823   1     0     1     1  0.823      0.823      0.001000  
   1   824   1     0     1     1  0.824      0.824      0.001000  
   1   825   1     0     1     1  0.825      0.825      0.001000  
   1   826   1     0     1     1  0.826      0.826      0.001000  
   1   827   1     0     1     1  0.827      0.827      0.001000  
   1   828   1     0     1     1  0.828      0.828      0.001000  
   1   829   1     0     1     1  0.829      0.829      0.001000  
   1   830   1     0     1     1  0.830      0.830      0.001000  
   1   831   1     0     1     1  0.831      0.831      0.001000  
   1   832   1     0     1     1  0.832      0.832      0.001000  
   1   833   1     0     1     1  0.833      0.833      0.001000  
   1   834   1     0     1     1  0.834      0.834      0.001000  
   1   835   1     0     1     1  0.835      0.835      0.001000  
   1   836   1     0     1     1  0.836      0.836      0.001000  
   1   837   1     0     1     1  0.837      0.837      0.001000  
   1   838   1     0     1     1  0.838      0.838      0.001000  
   1   839   1     0     1     1  0.839      0.839      0.001000  
   1   840   1     0     1     1  0.840      0.840      0.001000  
   1   841   1     0     1     1  0.841      0.841      0.001000  
   1   842   1     0     1     1  0.842      0.842      0.001000  
   1   843   1     0     1     1  0.843      0.843      0.001000  
   1   844   1     0     1     1  0.844      0.844      0.001000  
   1   845   1     0     1     1  0.845      0.845      0.001000  
   1   846   1     0     1     1  0.846      0.846      0.001000  
   1   847   1     0     1     1  0.847      0.847      0.001000  
   1   848   1     0     1     1  0.848      0.848      0.001000  
   1   849   1     0     1     1  0.849      0.849      0.001000  
   1   850   1     0     1     1  0.850      0.850      0.001000  
   1   851   1     0     1     1  0.851      0.851      0.001000  
   1   852   1     0     1     1  0.852      0.852      0.001000  
   1   853   1     0     1     1  0.853      0.853      0.001000  
   1   854   1     0     1     1  0.854      0.854      0.001000  
   1   855   1     0     1     1  0.855      0.855      0.001000  
   1   856   1     0     1     1  0.856      0.856      0.001000  
   1   857   1     0     1     1  0.857      0.857      0.001000  
   1   858   1     0     1     1  0.858      0.858      0.001000  
   1   859   1     0     1     1  0.859      0.859      0.001000  
   1   860   1     0     1     1  0.860      0.860      0.001000  
   1   861   1     0     1     1  0.861      0.861      0.001000  
   1   862   1     0     1     1  0.862      0.862      0.001000  
   1   863   1     0     1     1  0.863      0.863      0.001000  
   1   864   1     0     1     1  0.864      0.864      0.001000  
   1   865   1     0     1     1  0.865      0.865      0.001000  
   1   866   1     0     1     1  0.866      0.866      0.001000  
   1   867   1     0     1     1  0.867      0.867      0.001000  
   1   868   1     0     1     1  0.868      0.868      0.001000  
   1   869   1     0     1     1  0.869      0.869      0.001000  
   1   870   1     0     1     1  0.870      0.870      0.001000  
   1   871   1     0     1     1  0.871      0.871      0.001000  
   1   872   1     0     1     1  0.872      0.872      0.001000  
   1   873   1     0     1     1  0.873      0.873      0.001000  
   1   874   1     0     1     1  0.874      0.874      0.001000  
   1   875   1     0     1     1  0.875      0.875      0.001000  
   1   876   1     0     1     1  0.876      0.876      0.001000  
   1   877   1     0     1     1  0.877      0.877      0.001000  
   1   878   1     0     1     1  0.878      0.878      0.001000  
   1   879   1     0     1     1  0.879      0.879      0.001000  
   1   880   1     0     1     1  0.880      0.880      0.001000  
   1   881   1     0     1     1  0.881      0.881      0.001000  
   1   882   1     0     1     1  0.882      0.882      0.001000  
   1   883   1     0     1     1  0.883      0.883      0.001000  
   1   884   1     0     1     1  0.884      0.884      0.001000  
   1   885   1     0     1     1  0.885      0.885      0.001000  
   1   886   1     0     1     1  0.886      0.886      0.001000  
   1   887   1     0     1     1  0.887      0.887      0.001000  
   1   888   1     0     1     1  0.888      0.888      0.001000  
   1   889   1     0     1     1  0.889      0.889      0.001000  
   1   890   1     0     1     1  0.890      0.890      0.001000  
   1   891   1     0     1     1  0.891      0.891      0.001000  
   1   892   1     0     1     1  0.892      0.892      0.001000  
   1   893   1     0     1     1  0.893      0.893      0.001000  
   1   894   1     0     1     1  0.894      0.894      0.001000  
   1   895   1     0     1     1  0.895      0.895      0.001000  
   1   896   1     0     1     1  0.896      0.896      0.001000  
   1   897   1     0     1     1  0.897      0.897      0.001000  
   1   898   1     0     1     1  0.898      0.898      0.001000  
   1   899   1     0     1     1  0.899      0.899      0.001000  
   1   900   1     0     1     1  0.900      0.900      0.001000  
   1   901   1     0     1     1  0.901      0.901      0.001000  
   1   902   1     0     1     1  0.902      0.902      0.001000  
   1   903   1     0     1     1  0.903      0.903      0.001000  
   1   904   1     0     1     1  0.904      0.904      0.001000  
   1   905   1     0     1     1  0.905      0.905      0.001000  
   1   906   1     0     1     1  0.906      0.906      0.001000  
   1   907   1     0     1     1  0.907      0.907      0.001000  
   1   908   1     0     1     1  0.908      0.908      0.001000  
   1   909   1     0     1     1  0.909      0.909      0.001000  
   1   910   1     0     1     1  0.910      0.910      0.001000  
   1   911   1     0     1     1  0.911      0.911      0.001000  
   1   912   1     0     1     1  0.912      0.912      0.001000  
   1   913   1     0     1     1  0.913      0.913      0.001000  
   1   914   1     0     1     1  0.914      0.914      0.001000  
   1   915   1     0     1     1  0.915      0.915      0.001000  
   1   916   1     0     1     1  0.916      0.916      0.001000  
   1   917   1     0     1     1  0.917      0.917      0.001000  
   1   918   1     0     1     1  0.918      0.918      0.001000  
   1   919   1     0     1     1  0.919      0.919      0.001000  
   1   920   1     0     1     1  0.920      0.920      0.001000  
   1   921   1     0     1     1  0.921      0.921      0.001000  
   1   922   1     0     1     1  0.922      0.922      0.001000  
   1   923   1     0     1     1  0.923      0.923      0.001000  
   1   924   1     0     1     1  0.924      0.924      0.001000  
   1   925   1     0     1     1  0.925      0.925      0.001000  
   1   926   1     0     1     1  0.926      0.926      0.001000  
   1   927   1     0     1     1  0.927      0.927      0.001000  
   1   928   1     0     1     1  0.928      0.928      0.001000  
   1   929   1     0     1     1  0.929      0.929      0.001000  
   1   930   1     0     1     1  0.930      0.930      0.001000  
   1   931   1     0     1     1  0.931      0.931      0.001000  
   1   932   1     0     1     1  0.932      0.932      0.001000  
   1   933   1     0     1     1  0.933      0.933      0.001000  
   1   934   1     0     1     1  0.934      0.934      0.001000  
   1   935   1     0     1     1  0.935      0.935      0.001000  
   1   936   1     0     1     1  0.936      0.936      0.001000  
   1   937   1     0     1     1  0.937      0.937      0.001000  
   1   938   1     0     1     1  0.938      0.938      0.001000  
   1   939   1     0     1     1  0.939      0.939      0.001000  
   1   940   1     0     1     1  0.940      0.940      0.001000  
   1   941   1     0     1     1  0.941      0.941      0.001000  
   1   942   1     0     1     1  0.942      0.942      0.001000  
   1   943   1     0     1     1  0.943      0.943      0.001000  
   1   944   1     0     1     1  0.944      0.944      0.001000  
   1   945   1     0     1     1  0.945      0.945      0.001000  
   1   946   1     0     1     1  0.946      0.946      0.001000  
   1   947   1     0     1     1  0.947      0.947      0.001000  
   1   948   1     0     1     1  0.948      0.948      0.001000  
   1   949   1     0     1     1  0.949      0.949      0.001000  
   1   950   1     0     1     1  0.950      0.950      0.001000  
   1   951   1     0     1     1  0.951      0.951      0.001000  
   1   952   1     0     1     1  0.952      0.952      0.001000  
   1   953   1     0     1     1  0.953      0.953      0.001000  
   1   954   1     0     1     1  0.954      0.954      0.001000  
   1   955   1     0     1     1  0.955      0.955      0.001000  
   1   956   1     0     1     1  0.956      0.956      0.001000  
   1   957   1     0     1     1  0.957      0.957      0.001000  
   1   958   1     0     1     1  0.958      0.958      0.001000  
   1   959   1     0     1     1  0.959      0.959      0.001000  
   1   960   1     0     1     1  0.960      0.960      0.001000  
   1   961   1     0     1     1  0.961      0.961      0.001000  
   1   962   1     0     1     1  0.962      0.962      0.001000  
   1   963   1     0     1     1  0.963      0.963      0.001000  
   1   964   1     0     1     1  0.964      0.964      0.001000  
   1   965   1     0     1     1  0.965      0.965      0.001000  
   1   966   1     0     1     1  0.966      0.966      0.001000  
   1   967   1     0     1     1  0.967      0.967      0.001000  
   1   968   1     0     1     1  0.968      0.968      0.001000  
   1   969   1     0     1     1  0.969      0.969      0.001000  
   1   970   1     0     1     1  0.970      0.970      0.001000  
   1   971   1     0     1     1  0.971      0.971      0.001000  
   1   972   1     0     1     1  0.972      0.972      0.001000  
   1   973   1     0     1     1  0.973      0.973      0.001000  
   1   974   1     0     1     1  0.974      0.974      0.001000  
   1   975   1     0     1     1  0.975      0.975      0.001000  
   1   976   1     0     1     1  0.976      0.976      0.001000  
   1   977   1     0     1     1  0.977      0.977      0.001000  
   1   978   1     0     1     1  0.978      0.978      0.001000  
   1   979   1     0     1     1  0.979      0.979      0.001000  
   1   980   1     0     1     1  0.980      0.980      0.001000  
   1   981   1     0     1     1  0.981      0.981      0.001000  
   1   982   1     0     1     1  0.982      0.982      0.001000  
   1   983   1     0     1     1  0.983      0.983      0.001000  
   1   984   1     0     1     1  0.984      0.984      0.001000  
   1   985   1     0     1     1  0.985      0.985      0.001000  
   1   986   1     0     1     1  0.986      0.986      0.001000  
   1   987   1     0     1     1  0.987      0.987      0.001000  
   1   988   1     0     1     1  0.988      0.988      0.001000  
   1   989   1     0     1     1  0.989      0.989      0.001000  
   1   990   1     0     1     1  0.990      0.990      0.001000  
   1   991   1     0     1     1  0.991      0.991      0.001000  
   1   992   1     0     1     1  0.992      0.992      0.001000  
   1   993   1     0     1     1  0.993      0.993      0.001000  
   1   994   1     0     1     1  0.994      0.994      0.001000  
   1   995   1     0     1     1  0.995      0.995      0.001000  
   1   996   1     0     1     1  0.996      0.996      0.001000  
   1   997   1     0     1     1  0.997      0.997      0.001000  
   1   998   1     0     1     1  0.998      0.998      0.001000  
   1   999   1     0     1     1  0.999      0.999      0.001000  
   1  1000   1     0     1     1  1.00       1.00       0.001000  
                          
 THE ANALYSIS HAS COMPLETED SUCCESSFULLY
